ChemDiv-F172-0365 MCULE-6549572909 MolPort-010-736-237 PubChem-50764218 ZINC000035378621


 33 36  0  0  0  0  0  0  0  0999 V2000
   17.4861   -8.8327    8.3553 N   0  0  0  0  0
   18.6381   -9.3181   10.3419 N   0  0  0  0  0
   16.2275   -8.3318   17.5366 N   0  0  0  0  0
   17.6538   -8.1080    7.2968 O   0  0  0  0  0
   17.2908   -9.9224   13.0666 O   0  0  0  0  0
   13.9600   -6.1396   18.3990 O   0  0  0  0  0
   15.7535   -6.6720   15.9439 O   0  0  0  0  0
   15.4486   -9.7436    7.9096 O   0  0  0  0  0
   18.8117   -7.4841    7.3901 C   0  0  0  0  0
   19.4621   -7.8073    8.5860 C   0  0  0  0  0
   18.5474   -8.6763    9.1511 C   0  0  0  0  0
   17.6163  -10.1417   10.7252 C   0  0  0  0  0
   17.6754  -10.8284   12.0422 C   0  0  0  0  0
   17.2153  -10.2218   14.4364 C   0  0  0  0  0
   17.5470  -11.4782   15.0087 C   0  0  0  0  0
   18.0297  -12.6410   14.2124 C   0  0  0  0  0
   17.4323  -11.6593   16.3905 C   0  0  0  0  0
   16.9966  -10.6188   17.2113 C   0  0  0  0  0
   16.6678   -9.3793   16.6624 C   0  0  0  0  0
   16.7812   -9.1921   15.2789 C   0  0  0  0  0
   15.8024   -7.0173   17.1542 C   0  0  0  0  0
   15.3683   -6.0551   18.2056 C   0  0  0  0  0
   13.3477   -7.1216   19.1897 C   0  0  0  0  0
   14.1129   -8.0373   19.9313 C   0  0  0  0  0
   13.4896   -9.0094   20.7177 C   0  0  0  0  0
   14.3114   -9.9730   21.4963 C   0  0  0  0  0
   12.0959   -9.0735   20.7736 C   0  0  0  0  0
   11.3260   -8.1653   20.0428 C   0  0  0  0  0
   11.9455   -7.1913   19.2520 C   0  0  0  0  0
   11.0981   -6.2399   18.4803 C   0  0  0  0  0
   16.4840  -10.3099    9.9016 C   0  0  0  0  0
   16.4376   -9.6269    8.6799 C   0  0  0  0  0
   19.3406   -6.5588    6.3539 C   0  0  0  0  0
  1  4  1  0  0  0
  3 21  1  0  0  0
  9  4  1  0  0  0
 10 11  1  0  0  0
 11  1  1  0  0  0
 12  2  1  0  0  0
 13 12  1  0  0  0
 13  5  1  0  0  0
 14  5  1  0  0  0
 15 17  1  0  0  0
 16 15  1  0  0  0
 18 19  1  0  0  0
 19  3  1  0  0  0
 20 14  1  0  0  0
 22 21  1  0  0  0
 22  6  1  0  0  0
 23  6  1  0  0  0
 24 25  1  0  0  0
 26 25  1  0  0  0
 27 28  1  0  0  0
 29 23  1  0  0  0
 30 29  1  0  0  0
 31 32  1  0  0  0
 32  1  1  0  0  0
 33  9  1  0  0  0
  9 10  2  0  0  0
 11  2  2  0  0  0
 12 31  2  0  0  0
 14 15  2  0  0  0
 17 18  2  0  0  0
 19 20  2  0  0  0
 21  7  2  0  0  0
 23 24  2  0  0  0
 25 27  2  0  0  0
 28 29  2  0  0  0
 32  8  2  0  0  0
M  END
> <rmsd>
0.683392823

$$$$
ChemDiv-G355-3273 MCULE-6446847803 MolPort-010-743-030 PubChem-50793958 ZINC000035428416 ZINC35428416


 32 35  0  0  0  0  0  0  0  0999 V2000
   18.4168   -5.8531    6.6415 C   0  0  0  0  0
   18.1789   -6.9608    7.6034 C   0  0  0  0  0
   18.7307   -7.0422    8.8868 C   0  0  0  0  0
   18.1933   -8.2380    9.3243 C   0  0  0  0  0
   17.7533  -10.0339   10.7635 C   0  0  0  0  0
   17.9320  -10.7127   12.0742 C   0  0  0  0  0
   17.2383  -10.3157   14.4511 C   0  0  0  0  0
   16.7926   -9.3323   15.3426 C   0  0  0  0  0
   16.7099   -9.5798   16.7194 C   0  0  0  0  0
   15.8266   -7.2522   17.3282 C   0  0  0  0  0
   15.3841   -6.3499   18.4288 C   0  0  0  0  0
   13.0848   -7.1783   18.9036 C   0  0  0  0  0
   11.6980   -6.9689   18.8099 C   0  0  0  0  0
   11.1528   -5.7254   18.1966 C   0  0  0  0  0
   10.8088   -7.9331   19.2954 C   0  0  0  0  0
   11.2923   -9.1077   19.8771 C   0  0  0  0  0
   12.6687   -9.3218   19.9768 C   0  0  0  0  0
   13.5609   -8.3615   19.4939 C   0  0  0  0  0
   17.0781  -10.8331   17.2103 C   0  0  0  0  0
   17.5192  -11.8292   16.3386 C   0  0  0  0  0
   17.6036  -11.5883   14.9639 C   0  0  0  0  0
   18.0449  -12.7229   14.1048 C   0  0  0  0  0
   16.9219  -10.6167    9.7853 C   0  0  0  0  0
   16.7613   -9.9545    8.5620 C   0  0  0  0  0
   18.3812   -8.8438   10.5223 N   0  0  0  0  0
   16.2655   -8.5789   17.6449 N   0  0  0  0  0
   17.4139   -8.7808    8.3843 N   0  0  0  0  0
   17.2857   -9.9624   13.0935 O   0  0  0  0  0
   15.7929   -6.8401   16.1387 O   0  0  0  0  0
   13.9669   -6.2052   18.4131 O   0  0  0  0  0
   16.0297  -10.4344    7.6566 O   0  0  0  0  0
   17.4119   -8.0036    7.3500 O   0  0  0  0  0
  1  2  1  0  0  0
  2 32  1  0  0  0
  3  4  1  0  0  0
  5 25  1  0  0  0
  6  5  1  0  0  0
  6 28  1  0  0  0
  7 28  1  0  0  0
  8  9  1  0  0  0
  9 26  1  0  0  0
 11 10  1  0  0  0
 11 30  1  0  0  0
 12 30  1  0  0  0
 13 15  1  0  0  0
 14 13  1  0  0  0
 16 17  1  0  0  0
 18 12  1  0  0  0
 19 20  1  0  0  0
 21  7  1  0  0  0
 22 21  1  0  0  0
 23 24  1  0  0  0
 24 27  1  0  0  0
 26 10  1  0  0  0
 27 32  1  0  0  0
 27  4  1  0  0  0
  2  3  2  0  0  0
  4 25  2  0  0  0
  5 23  2  0  0  0
  7  8  2  0  0  0
  9 19  2  0  0  0
 10 29  2  0  0  0
 12 13  2  0  0  0
 15 16  2  0  0  0
 17 18  2  0  0  0
 20 21  2  0  0  0
 24 31  2  0  0  0
M  END
> <rmsd>
0.688209176

$$$$
ChemDiv-D439-4147 MCULE-6273110940 MolPort-007-706-779 PubChem-46268361 ZINC000021797132 ZINC21797132


 35 38  0  0  0  0  0  0  0  0999 V2000
   10.3455   -6.1041   18.1059 C   0  0  0  0  0
   11.4130   -6.6919   19.0106 C   0  0  0  0  0
   12.1434   -5.6086   19.7367 C   0  0  0  0  0
   13.5037   -5.3671   19.4756 C   0  0  0  0  0
   15.5440   -5.9528   18.1989 C   0  0  0  0  0
   15.9463   -6.9251   17.1494 C   0  0  0  0  0
   16.7032   -9.3232   16.6552 C   0  0  0  0  0
   17.0042  -10.5691   17.2059 C   0  0  0  0  0
   17.4002  -11.6251   16.3847 C   0  0  0  0  0
   17.5017  -11.4538   15.0008 C   0  0  0  0  0
   17.9346  -12.6364   14.2044 C   0  0  0  0  0
   17.1986  -10.1907   14.4263 C   0  0  0  0  0
   17.6271  -10.8187   12.0327 C   0  0  0  0  0
   17.5822  -10.1385   10.7118 C   0  0  0  0  0
   16.4046  -10.1918    9.9389 C   0  0  0  0  0
   16.3767   -9.5220    8.7095 C   0  0  0  0  0
   19.0031   -7.6703    7.3496 C   0  0  0  0  0
   18.5968   -8.8016    9.0778 C   0  0  0  0  0
   16.8079   -7.9177    6.1328 C   0  0  0  0  0
   17.3688   -8.4894    4.8441 C   0  0  0  0  0
   16.5236   -6.4368    5.9650 C   0  0  0  0  0
   16.8041   -9.1455   15.2693 C   0  0  0  0  0
   14.1713   -4.3542   20.1848 C   0  0  0  0  0
   13.4946   -3.5968   21.1439 C   0  0  0  0  0
   12.1458   -3.8453   21.4049 C   0  0  0  0  0
   11.4728   -4.8496   20.7052 C   0  0  0  0  0
   14.1703   -6.1363   18.5147 O   0  0  0  0  0
   15.9354   -6.5695   15.9415 O   0  0  0  0  0
   17.2646   -9.9004   13.0539 O   0  0  0  0  0
   15.3443   -9.5490    7.9892 O   0  0  0  0  0
   16.3014   -8.2605   17.5301 N   0  0  0  0  0
   17.4943   -8.8471    8.3278 N   0  0  0  0  0
   17.7357   -8.1404    7.2391 N   0  0  0  0  0
   19.5809   -8.0746    8.5141 N   0  0  0  0  0
   18.6682   -9.4342   10.2745 N   0  0  0  0  0
  1  2  1  0  0  0
  2  3  1  0  0  0
  4 27  1  0  0  0
  4 23  1  0  0  0
  5 27  1  0  0  0
  5  6  1  0  0  0
  6 31  1  0  0  0
  8  9  1  0  0  0
 10 12  1  0  0  0
 11 10  1  0  0  0
 12 29  1  0  0  0
 13 29  1  0  0  0
 13 14  1  0  0  0
 14 35  1  0  0  0
 15 16  1  0  0  0
 16 32  1  0  0  0
 18 34  1  0  0  0
 18 32  1  0  0  0
 19 33  1  0  0  0
 19 20  1  0  0  0
 19 21  1  0  0  0
 22  7  1  0  0  0
 24 25  1  0  0  0
 26  3  1  0  0  0
 31  7  1  0  0  0
 32 33  1  0  0  0
 33 17  1  0  0  0
  3  4  2  0  0  0
  6 28  2  0  0  0
  7  8  2  0  0  0
  9 10  2  0  0  0
 12 22  2  0  0  0
 14 15  2  0  0  0
 16 30  2  0  0  0
 17 34  2  0  0  0
 18 35  2  0  0  0
 23 24  2  0  0  0
 25 26  2  0  0  0
M  END
> <rmsd>
0.763670504

$$$$
ChemDiv-G756-0356 MCULE-8012339124 MolPort-010-744-630 PubChem-50802116 ZINC000033268545 ZINC33268545


 33 36  0  0  0  0  0  0  0  0999 V2000
    9.0913   -4.2112   21.2566 C   0  0  0  0  0
   10.1355   -4.8558   20.4084 C   0  0  0  0  0
    9.7347   -5.5563   19.2669 C   0  0  0  0  0
   10.6857   -6.1747   18.4504 C   0  0  0  0  0
   12.0466   -6.0979   18.7665 C   0  0  0  0  0
   14.3761   -6.6606   18.1488 C   0  0  0  0  0
   15.0804   -7.4490   17.1029 C   0  0  0  0  0
   16.4289   -9.5651   16.5876 C   0  0  0  0  0
   17.0527  -10.6923   17.1293 C   0  0  0  0  0
   17.7426  -11.5841   16.3040 C   0  0  0  0  0
   17.8144  -11.3574   14.9268 C   0  0  0  0  0
   18.5591  -12.3238   14.0719 C   0  0  0  0  0
   17.1894  -10.2316   14.3662 C   0  0  0  0  0
   16.6249   -8.9156   12.3459 C   0  0  0  0  0
   16.9394   -8.9330   10.8934 C   0  0  0  0  0
   16.1286   -9.6429   10.0132 C   0  0  0  0  0
   16.4639   -9.6651    8.6601 C   0  0  0  0  0
   17.9049   -9.0256    6.8895 C   0  0  0  0  0
   19.0361   -8.3550    6.4204 C   0  0  0  0  0
   19.8374   -7.6558    7.3205 C   0  0  0  0  0
   19.5031   -7.6341    8.6733 C   0  0  0  0  0
   18.3650   -8.3145    9.1122 C   0  0  0  0  0
   16.4992   -9.3417   15.2054 C   0  0  0  0  0
   12.4503   -5.3945   19.9129 C   0  0  0  0  0
   11.5033   -4.7780   20.7373 C   0  0  0  0  0
   11.9753   -4.0501   21.9507 C   0  0  0  0  0
   12.9713   -6.7292   17.9312 O   0  0  0  0  0
   15.0942   -7.0292   15.9163 O   0  0  0  0  0
   17.2658  -10.0110   12.9858 O   0  0  0  0  0
   15.7260  -10.3007    7.8589 O   0  0  0  0  0
   15.7286   -8.6736   17.4660 N   0  0  0  0  0
   17.5770   -9.0028    8.2165 N   0  0  0  0  0
   18.0409   -8.2905   10.4311 N   0  0  0  0  0
  1  2  1  0  0  0
  3  4  1  0  0  0
  5 27  1  0  0  0
  5 24  1  0  0  0
  6 27  1  0  0  0
  6  7  1  0  0  0
  7 31  1  0  0  0
  9 10  1  0  0  0
 11 13  1  0  0  0
 12 11  1  0  0  0
 13 29  1  0  0  0
 14 29  1  0  0  0
 14 15  1  0  0  0
 15 33  1  0  0  0
 16 17  1  0  0  0
 17 32  1  0  0  0
 19 20  1  0  0  0
 21 22  1  0  0  0
 22 32  1  0  0  0
 23  8  1  0  0  0
 25  2  1  0  0  0
 26 25  1  0  0  0
 31  8  1  0  0  0
 32 18  1  0  0  0
  2  3  2  0  0  0
  4  5  2  0  0  0
  7 28  2  0  0  0
  8  9  2  0  0  0
 10 11  2  0  0  0
 13 23  2  0  0  0
 15 16  2  0  0  0
 17 30  2  0  0  0
 18 19  2  0  0  0
 20 21  2  0  0  0
 22 33  2  0  0  0
 24 25  2  0  0  0
M  END
> <rmsd>
0.639538944

$$$$
ChemDiv-D439-4253 MCULE-6456718294 MolPort-007-706-801 PubChem-46268383 ZINC000021797238 ZINC21797238


 35 38  0  0  0  0  0  0  0  0999 V2000
   15.4360   -6.2742    6.2835 C   0  0  0  0  0
   15.5403   -7.7742    6.0874 C   0  0  0  0  0
   16.9968   -8.1930    5.9577 C   0  0  0  0  0
   18.6320   -7.1707    7.5526 C   0  0  0  0  0
   18.3550   -8.3996    9.2407 C   0  0  0  0  0
   17.6620  -10.0796   10.7183 C   0  0  0  0  0
   17.7287  -10.7390   12.0498 C   0  0  0  0  0
   17.0976  -10.1598   14.4106 C   0  0  0  0  0
   16.7023   -9.1123   15.2507 C   0  0  0  0  0
   16.5270   -9.3077   16.6271 C   0  0  0  0  0
   15.8461   -6.8872   17.1287 C   0  0  0  0  0
   15.4708   -5.9074   18.1827 C   0  0  0  0  0
   13.4315   -5.2103   19.4029 C   0  0  0  0  0
   12.0483   -5.3557   19.6075 C   0  0  0  0  0
   11.2575   -6.3382   18.8142 C   0  0  0  0  0
   11.3956   -4.5747   20.5667 C   0  0  0  0  0
   12.1133   -3.6453   21.3247 C   0  0  0  0  0
   13.4874   -3.4931   21.1258 C   0  0  0  0  0
   14.2503   -2.5043   21.9310 C   0  0  0  0  0
   14.1444   -4.2717   20.1694 C   0  0  0  0  0
   16.7531  -10.5725   17.1709 C   0  0  0  0  0
   17.1443  -11.6317   16.3519 C   0  0  0  0  0
   17.3178  -11.4441   14.9774 C   0  0  0  0  0
   17.7262  -12.6337   14.1801 C   0  0  0  0  0
   16.7857  -10.5839    9.7362 C   0  0  0  0  0
   16.7308   -9.9447    8.4917 C   0  0  0  0  0
   17.6829   -8.0834    7.2405 N   0  0  0  0  0
   19.0811   -7.3421    8.8266 N   0  0  0  0  0
   18.4476   -8.9925   10.4556 N   0  0  0  0  0
   16.1297   -8.2428   17.5006 N   0  0  0  0  0
   17.5219   -8.8543    8.3016 N   0  0  0  0  0
   17.2400   -9.8533   13.0474 O   0  0  0  0  0
   15.8765   -6.5179   15.9248 O   0  0  0  0  0
   14.0756   -5.9995   18.4427 O   0  0  0  0  0
   15.9786  -10.3818    7.5816 O   0  0  0  0  0
  1  2  1  0  0  0
  2  3  1  0  0  0
  3 27  1  0  0  0
  5 28  1  0  0  0
  6 29  1  0  0  0
  7  6  1  0  0  0
  7 32  1  0  0  0
  8 32  1  0  0  0
  9 10  1  0  0  0
 10 30  1  0  0  0
 12 11  1  0  0  0
 12 34  1  0  0  0
 13 34  1  0  0  0
 14 16  1  0  0  0
 15 14  1  0  0  0
 17 18  1  0  0  0
 19 18  1  0  0  0
 20 13  1  0  0  0
 21 22  1  0  0  0
 23  8  1  0  0  0
 24 23  1  0  0  0
 25 26  1  0  0  0
 26 31  1  0  0  0
 27  4  1  0  0  0
 30 11  1  0  0  0
 31 27  1  0  0  0
 31  5  1  0  0  0
  4 28  2  0  0  0
  5 29  2  0  0  0
  6 25  2  0  0  0
  8  9  2  0  0  0
 10 21  2  0  0  0
 11 33  2  0  0  0
 13 14  2  0  0  0
 16 17  2  0  0  0
 18 20  2  0  0  0
 22 23  2  0  0  0
 26 35  2  0  0  0
M  END
> <rmsd>
0.741323888

$$$$
